<?xml version="1.0" encoding="UTF-8"?>

<!-- generated on 2025-11-26 04:04:12 by Eclipse SUMO netedit Version 1.24.0
<neteditConfiguration xmlns:xsi="http://www.w3.org/2001/XMLSchema-instance" xsi:noNamespaceSchemaLocation="http://sumo.dlr.de/xsd/neteditConfiguration.xsd">

    <input>
        <sumocfg-file value="D:\Programming Shit\JavaEX\JavaPROJECT\Project\altstadt.sumocfg"/>
        <additional-files value="D:\Programming Shit\JavaEX\JavaPROJECT\Project\altstadt.add.xml"/>
        <route-files value="D:\Programming Shit\JavaEX\JavaPROJECT\Project\altstadt.rou.xml"/>
        <sumo-net-file value="D:\Programming Shit\JavaEX\JavaPROJECT\Project\altstadt.net.xml"/>
    </input>

    <output>
        <tls-file value="D:\Programming Shit\JavaEX\JavaPROJECT\Project\altstadt.ttl.xml"/>
        <output-file value="D:\Programming Shit\JavaEX\JavaPROJECT\Project\altstadt.net.xml"/>
    </output>

    <processing>
        <geometry.min-radius.fix.railways value="false"/>
        <geometry.avoid-overlap value="false"/>
        <geometry.max-grade.fix value="false"/>
        <offset.disable-normalization value="true"/>
        <lefthand value="0"/>
    </processing>

    <junctions>
        <no-turnarounds value="true"/>
        <junctions.corner-detail value="5"/>
        <junctions.limit-turn-speed value="5.50"/>
        <rectangular-lane-cut value="0"/>
    </junctions>

    <pedestrian>
        <walkingareas value="0"/>
    </pedestrian>

</neteditConfiguration>
-->

<net version="1.20" junctionCornerDetail="5" limitTurnSpeed="5.50" avoidOverlap="0" xmlns:xsi="http://www.w3.org/2001/XMLSchema-instance" xsi:noNamespaceSchemaLocation="http://sumo.dlr.de/xsd/net_file.xsd">

    <location netOffset="0.00,0.00" convBoundary="-271.14,-84.78,835.00,499.21" origBoundary="-10000000000.00,-10000000000.00,10000000000.00,10000000000.00" projParameter="!"/>

    <edge id=":J0_0" function="internal">
        <lane id=":J0_0_0" index="0" speed="13.89" length="22.54" shape="636.81,466.86 634.74,472.92 633.12,477.65 632.30,482.44 632.66,488.68"/>
        <lane id=":J0_0_1" index="1" speed="13.89" length="22.54" shape="633.75,465.93 631.63,471.98 629.91,476.71 628.98,481.49 629.29,487.73"/>
    </edge>
    <edge id=":J0_2" function="internal">
        <lane id=":J0_2_0" index="0" speed="12.52" length="4.39" shape="633.75,465.93 631.68,469.80"/>
    </edge>
    <edge id=":J0_8" function="internal">
        <lane id=":J0_8_0" index="0" speed="12.52" length="18.01" shape="631.68,469.80 627.98,473.02 622.67,475.60 615.73,477.53"/>
    </edge>
    <edge id=":J0_3" function="internal">
        <lane id=":J0_3_0" index="0" speed="10.51" length="15.59" shape="614.43,471.27 619.66,469.90 623.61,468.24 626.26,466.30 627.63,464.08"/>
    </edge>
    <edge id=":J0_4" function="internal">
        <lane id=":J0_4_0" index="0" speed="9.70" length="22.42" shape="615.08,474.40 620.45,474.30 624.61,476.49 627.56,480.96 629.29,487.73"/>
    </edge>
    <edge id=":J0_5" function="internal">
        <lane id=":J0_5_0" index="0" speed="6.45" length="9.29" shape="622.55,485.83 621.83,483.16 620.57,481.41 618.75,480.58 616.39,480.67"/>
    </edge>
    <edge id=":J0_6" function="internal">
        <lane id=":J0_6_0" index="0" speed="13.89" length="22.63" shape="622.55,485.83 622.34,479.60 623.48,474.83 625.41,470.12 627.63,464.08"/>
        <lane id=":J0_6_1" index="1" speed="13.89" length="22.63" shape="625.92,486.78 625.66,480.55 626.69,475.77 628.52,471.05 630.69,465.00"/>
    </edge>
    <edge id=":J1_0" function="internal">
        <lane id=":J1_0_0" index="0" speed="13.89" length="28.55" shape="649.43,433.68 646.61,440.39 643.82,446.83 641.19,453.31 638.84,460.19"/>
        <lane id=":J1_0_1" index="1" speed="13.89" length="28.55" shape="646.46,432.49 643.64,439.20 640.85,445.63 638.21,452.12 635.86,458.99"/>
    </edge>
    <edge id=":J1_2" function="internal">
        <lane id=":J1_2_0" index="0" speed="13.89" length="4.10" shape="646.46,432.49 644.23,435.93"/>
    </edge>
    <edge id=":J1_9" function="internal">
        <lane id=":J1_9_0" index="0" speed="13.89" length="24.99" shape="644.23,435.93 642.60,438.46 637.11,442.91 630.68,446.55 624.04,450.08"/>
    </edge>
    <edge id=":J1_3" function="internal">
        <lane id=":J1_3_0" index="0" speed="13.89" length="26.05" shape="620.88,444.51 627.09,441.48 632.56,438.94 637.10,435.58 640.52,430.10"/>
        <lane id=":J1_3_1" index="1" speed="13.89" length="26.05" shape="622.46,447.30 628.89,444.02 634.84,440.93 639.85,437.02 643.49,431.30"/>
    </edge>
    <edge id=":J1_5" function="internal">
        <lane id=":J1_5_0" index="0" speed="8.10" length="23.56" shape="622.46,447.30 628.58,445.74 633.45,447.77 636.18,452.49 635.86,458.99"/>
    </edge>
    <edge id=":J1_6" function="internal">
        <lane id=":J1_6_0" index="0" speed="5.36" length="9.38" shape="629.89,456.59 630.47,453.57 629.95,451.94 628.33,451.71 625.61,452.86"/>
    </edge>
    <edge id=":J1_7" function="internal">
        <lane id=":J1_7_0" index="0" speed="13.89" length="28.56" shape="629.89,456.59 632.25,449.72 634.90,443.24 637.69,436.81 640.52,430.10"/>
        <lane id=":J1_7_1" index="1" speed="13.89" length="28.56" shape="632.88,457.79 635.23,450.92 637.87,444.44 640.67,438.01 643.49,431.30"/>
    </edge>
    <edge id=":J101_0" function="internal">
        <lane id=":J101_0_0" index="0" speed="13.89" length="31.54" shape="540.87,467.14 536.21,461.00 531.74,454.46 526.87,448.41 521.02,443.73"/>
        <lane id=":J101_0_1" index="1" speed="13.89" length="31.54" shape="543.46,465.24 538.64,458.96 533.82,452.12 528.60,445.76 522.60,440.95"/>
    </edge>
    <edge id=":J101_2" function="internal">
        <lane id=":J101_2_0" index="0" speed="7.60" length="23.61" shape="543.46,465.24 541.23,459.55 543.13,454.35 547.87,451.21 554.13,451.71"/>
    </edge>
    <edge id=":J101_3" function="internal">
        <lane id=":J101_3_0" index="0" speed="5.62" length="12.05" shape="551.60,457.59 547.59,456.18 545.76,456.35 546.11,458.10 548.63,461.43"/>
    </edge>
    <edge id=":J101_4" function="internal">
        <lane id=":J101_4_0" index="0" speed="13.89" length="33.41" shape="551.60,457.59 544.17,454.44 536.13,451.02 528.18,447.42 521.02,443.73"/>
        <lane id=":J101_4_1" index="1" speed="13.89" length="33.41" shape="552.87,454.65 545.49,451.53 537.55,448.16 529.71,444.61 522.60,440.95"/>
    </edge>
    <edge id=":J101_6" function="internal">
        <lane id=":J101_6_0" index="0" speed="13.89" length="32.73" shape="525.75,435.38 532.76,438.99 540.40,442.44 548.12,445.70 555.40,448.78"/>
        <lane id=":J101_6_1" index="1" speed="13.89" length="32.73" shape="524.17,438.16 531.23,441.80 538.97,445.30 546.80,448.62 554.13,451.71"/>
    </edge>
    <edge id=":J101_8" function="internal">
        <lane id=":J101_8_0" index="0" speed="13.89" length="3.58" shape="524.17,438.16 526.96,440.40"/>
    </edge>
    <edge id=":J101_9" function="internal">
        <lane id=":J101_9_0" index="0" speed="13.89" length="29.95" shape="526.96,440.40 530.33,443.12 535.90,449.77 541.07,456.92 546.05,463.33"/>
    </edge>
    <edge id=":J21_0" function="internal">
        <lane id=":J21_0_0" index="0" allow="pedestrian wheelchair" speed="1.39" length="13.80" shape="-51.42,157.72 -51.60,154.16 -51.88,150.83 -52.29,147.52 -52.88,144.01"/>
    </edge>
    <edge id=":J21_1" function="internal">
        <lane id=":J21_1_0" index="0" allow="pedestrian wheelchair" speed="1.39" length="4.11" shape="-51.42,157.72 -50.99,153.63"/>
    </edge>
    <edge id=":J21_6" function="internal">
        <lane id=":J21_6_0" index="0" allow="pedestrian wheelchair" speed="1.39" length="10.61" shape="-50.99,153.63 -49.34,150.84 -46.46,149.34 -42.35,149.13"/>
    </edge>
    <edge id=":J21_2" function="internal">
        <lane id=":J21_2_0" index="0" allow="pedestrian wheelchair" speed="1.39" length="9.05" shape="-42.65,152.32 -45.17,152.44 -46.94,153.37 -47.96,155.08 -48.23,157.60"/>
    </edge>
    <edge id=":J21_3" function="internal">
        <lane id=":J21_3_0" index="0" allow="pedestrian wheelchair" speed="1.39" length="14.26" shape="-42.65,152.32 -46.60,151.49 -49.62,149.83 -51.71,147.34 -52.88,144.01"/>
    </edge>
    <edge id=":J21_4" function="internal">
        <lane id=":J21_4_0" index="0" allow="pedestrian wheelchair" speed="1.39" length="10.10" shape="-49.74,143.42 -48.92,145.69 -47.41,147.40 -45.22,148.55 -42.35,149.13"/>
    </edge>
    <edge id=":J21_5" function="internal">
        <lane id=":J21_5_0" index="0" allow="pedestrian wheelchair" speed="1.39" length="14.27" shape="-49.74,143.42 -49.14,147.00 -48.71,150.47 -48.41,153.96 -48.23,157.60"/>
    </edge>
    <edge id=":J22_0" function="internal">
        <lane id=":J22_0_0" index="0" allow="pedestrian wheelchair" speed="1.39" length="14.31" shape="-47.57,261.66 -47.98,247.36"/>
    </edge>
    <edge id=":J22_1" function="internal">
        <lane id=":J22_1_0" index="0" allow="pedestrian wheelchair" speed="1.39" length="3.94" shape="-47.57,261.66 -47.09,257.86 -47.04,257.77"/>
    </edge>
    <edge id=":J22_6" function="internal">
        <lane id=":J22_6_0" index="0" allow="pedestrian wheelchair" speed="1.39" length="10.26" shape="-47.04,257.77 -45.49,255.08 -42.78,253.30 -38.94,252.54"/>
    </edge>
    <edge id=":J22_2" function="internal">
        <lane id=":J22_2_0" index="0" allow="pedestrian wheelchair" speed="1.39" length="9.19" shape="-38.75,255.73 -41.25,256.22 -43.02,257.37 -44.06,259.16 -44.37,261.60"/>
    </edge>
    <edge id=":J22_3" function="internal">
        <lane id=":J22_3_0" index="0" allow="pedestrian wheelchair" speed="1.39" length="14.27" shape="-38.75,255.73 -42.66,255.40 -45.50,253.90 -47.27,251.22 -47.98,247.36"/>
    </edge>
    <edge id=":J22_4" function="internal">
        <lane id=":J22_4_0" index="0" allow="pedestrian wheelchair" speed="1.39" length="9.03" shape="-44.78,247.24 -44.33,249.68 -43.21,251.38 -41.41,252.33 -38.94,252.54"/>
    </edge>
    <edge id=":J22_5" function="internal">
        <lane id=":J22_5_0" index="0" allow="pedestrian wheelchair" speed="1.39" length="14.37" shape="-44.78,247.24 -44.37,261.60"/>
    </edge>
    <edge id=":J23_0" function="internal">
        <lane id=":J23_0_0" index="0" allow="pedestrian wheelchair" speed="1.39" length="11.81" shape="108.06,246.99 105.10,247.63 102.76,249.06 101.05,251.30 99.98,254.33"/>
    </edge>
    <edge id=":J23_1" function="internal">
        <lane id=":J23_1_0" index="0" allow="pedestrian wheelchair" speed="1.39" length="16.03" shape="108.06,246.99 92.07,248.03"/>
    </edge>
    <edge id=":J23_2" function="internal">
        <lane id=":J23_2_0" index="0" allow="pedestrian wheelchair" speed="1.39" length="4.28" shape="108.06,246.99 103.90,246.69 103.81,246.64"/>
    </edge>
    <edge id=":J23_12" function="internal">
        <lane id=":J23_12_0" index="0" allow="pedestrian wheelchair" speed="1.39" length="10.58" shape="103.81,246.64 101.06,245.10 99.53,242.22 99.33,238.05"/>
    </edge>
    <edge id=":J23_3" function="internal">
        <lane id=":J23_3_0" index="0" allow="pedestrian wheelchair" speed="1.39" length="9.05" shape="102.52,238.36 102.64,240.90 103.57,242.65 105.30,243.62 107.84,243.80"/>
    </edge>
    <edge id=":J23_4" function="internal">
        <lane id=":J23_4_0" index="0" allow="pedestrian wheelchair" speed="1.39" length="16.19" shape="102.52,238.36 102.07,242.27 101.48,246.38 100.76,250.48 99.98,254.33"/>
    </edge>
    <edge id=":J23_5" function="internal">
        <lane id=":J23_5_0" index="0" allow="pedestrian wheelchair" speed="1.39" length="15.75" shape="102.52,238.36 101.54,242.38 99.47,245.33 96.31,247.21 92.07,248.03"/>
    </edge>
    <edge id=":J23_6" function="internal">
        <lane id=":J23_6_0" index="0" allow="pedestrian wheelchair" speed="1.39" length="11.14" shape="91.88,244.84 94.91,244.26 97.17,242.94 98.64,240.87 99.33,238.05"/>
    </edge>
    <edge id=":J23_7" function="internal">
        <lane id=":J23_7_0" index="0" allow="pedestrian wheelchair" speed="1.39" length="15.99" shape="91.88,244.84 107.84,243.80"/>
    </edge>
    <edge id=":J23_8" function="internal">
        <lane id=":J23_8_0" index="0" allow="pedestrian wheelchair" speed="1.39" length="4.40" shape="91.88,244.84 96.26,245.20"/>
    </edge>
    <edge id=":J23_13" function="internal">
        <lane id=":J23_13_0" index="0" allow="pedestrian wheelchair" speed="1.39" length="10.97" shape="96.26,245.20 99.07,246.91 100.31,249.95 99.98,254.33"/>
    </edge>
    <edge id=":J23_9" function="internal">
        <lane id=":J23_9_0" index="0" allow="pedestrian wheelchair" speed="1.39" length="9.08" shape="96.85,253.64 97.05,251.05 96.32,249.25 94.66,248.25 92.07,248.03"/>
    </edge>
    <edge id=":J23_10" function="internal">
        <lane id=":J23_10_0" index="0" allow="pedestrian wheelchair" speed="1.39" length="15.79" shape="96.85,253.64 97.63,249.85 98.32,245.88 98.90,241.90 99.33,238.05"/>
    </edge>
    <edge id=":J23_11" function="internal">
        <lane id=":J23_11_0" index="0" allow="pedestrian wheelchair" speed="1.39" length="15.95" shape="96.85,253.64 98.30,249.58 100.62,246.58 103.79,244.66 107.84,243.80"/>
    </edge>
    <edge id=":J24_0" function="internal">
        <lane id=":J24_0_0" index="0" allow="pedestrian wheelchair" speed="1.39" length="7.75" shape="104.84,162.95 106.90,163.44 108.31,164.48 109.07,166.06 109.17,168.18"/>
    </edge>
    <edge id=":J24_1" function="internal">
        <lane id=":J24_1_0" index="0" allow="pedestrian wheelchair" speed="1.39" length="2.58" shape="105.98,167.88 105.95,167.17 105.70,166.64 105.23,166.30 104.54,166.13"/>
    </edge>
    <edge id=":J31_0" function="internal">
        <lane id=":J31_0_0" index="0" speed="6.34" length="9.04" shape="-39.29,303.22 -41.77,302.85 -43.71,303.38 -45.12,304.81 -46.00,307.16"/>
    </edge>
    <edge id=":J31_1" function="internal">
        <lane id=":J31_1_0" index="0" speed="13.89" length="16.18" shape="-39.29,303.22 -43.86,301.87 -47.01,301.04 -50.19,300.33 -54.85,299.37"/>
        <lane id=":J31_1_1" index="1" speed="13.89" length="16.18" shape="-38.36,300.16 -43.01,298.78 -46.22,297.93 -49.46,297.22 -54.20,296.24"/>
    </edge>
    <edge id=":J31_3" function="internal">
        <lane id=":J31_3_0" index="0" allow="pedestrian wheelchair" speed="7.64" length="3.96" shape="-38.36,300.16 -41.89,298.37"/>
    </edge>
    <edge id=":J31_14" function="internal">
        <lane id=":J31_14_0" index="0" allow="pedestrian wheelchair" speed="7.64" length="14.68" shape="-41.89,298.37 -42.12,298.25 -44.83,295.12 -46.51,290.77 -47.14,285.19"/>
    </edge>
    <edge id=":J31_4" function="internal">
        <lane id=":J31_4_0" index="0" allow="pedestrian wheelchair" speed="7.64" length="12.49" shape="-43.94,285.13 -43.43,288.20 -42.02,290.70 -39.71,292.65 -36.51,294.04"/>
    </edge>
    <edge id=":J31_5" function="internal">
        <lane id=":J31_5_0" index="0" allow="pedestrian wheelchair" speed="7.64" length="22.15" shape="-43.94,285.13 -44.07,290.00 -44.54,296.19 -45.22,302.36 -46.00,307.16"/>
    </edge>
    <edge id=":J31_6" function="internal">
        <lane id=":J31_6_0" index="0" allow="pedestrian wheelchair" speed="7.64" length="18.19" shape="-43.94,285.13 -44.49,290.81 -46.38,294.55 -49.62,296.36 -54.20,296.24"/>
    </edge>
    <edge id=":J31_7" function="internal">
        <lane id=":J31_7_0" index="0" allow="pedestrian wheelchair" speed="6.08" length="9.06" shape="-52.91,289.97 -50.34,290.13 -48.53,289.39 -47.46,287.74 -47.14,285.19"/>
    </edge>
    <edge id=":J31_8" function="internal">
        <lane id=":J31_8_0" index="0" speed="13.89" length="16.76" shape="-52.91,289.97 -47.99,290.99 -44.64,291.73 -41.32,292.61 -36.51,294.04"/>
        <lane id=":J31_8_1" index="1" speed="13.89" length="16.76" shape="-53.56,293.11 -48.72,294.10 -45.43,294.83 -42.16,295.70 -37.44,297.10"/>
    </edge>
    <edge id=":J31_10" function="internal">
        <lane id=":J31_10_0" index="0" speed="8.96" length="4.26" shape="-53.56,293.11 -49.59,294.65"/>
    </edge>
    <edge id=":J31_15" function="internal">
        <lane id=":J31_15_0" index="0" speed="8.96" length="13.94" shape="-49.59,294.65 -49.27,294.78 -46.59,297.67 -45.50,301.80 -46.00,307.16"/>
    </edge>
    <edge id=":J31_11" function="internal">
        <lane id=":J31_11_0" index="0" speed="6.91" length="10.40" shape="-49.13,306.48 -49.02,303.91 -49.94,301.87 -51.88,300.36 -54.85,299.37"/>
    </edge>
    <edge id=":J31_12" function="internal">
        <lane id=":J31_12_0" index="0" allow="pedestrian wheelchair" speed="7.64" length="21.41" shape="-49.13,306.48 -48.35,301.79 -47.70,295.88 -47.26,289.94 -47.14,285.19"/>
    </edge>
    <edge id=":J31_13" function="internal">
        <lane id=":J31_13_0" index="0" speed="8.54" length="17.30" shape="-49.13,306.48 -47.40,301.35 -44.88,298.07 -41.56,296.66 -37.44,297.10"/>
    </edge>
    <edge id=":J32_0" function="internal">
        <lane id=":J32_0_0" index="0" speed="13.89" length="14.34" shape="-63.87,416.90 -77.98,414.34"/>
        <lane id=":J32_0_1" index="1" speed="13.89" length="14.34" shape="-63.29,413.75 -77.42,411.19"/>
    </edge>
    <edge id=":J32_2" function="internal">
        <lane id=":J32_2_0" index="0" speed="8.62" length="3.73" shape="-63.29,413.75 -66.76,412.39"/>
    </edge>
    <edge id=":J32_8" function="internal">
        <lane id=":J32_8_0" index="0" speed="8.62" length="13.31" shape="-66.76,412.39 -67.03,412.29 -69.33,409.54 -70.19,405.52 -69.61,400.22"/>
    </edge>
    <edge id=":J32_3" function="internal">
        <lane id=":J32_3_0" index="0" speed="6.44" length="9.03" shape="-66.48,400.91 -66.66,403.39 -66.00,405.30 -64.49,406.66 -62.13,407.46"/>
    </edge>
    <edge id=":J32_4" function="internal">
        <lane id=":J32_4_0" index="0" speed="8.79" length="16.83" shape="-66.48,400.91 -68.13,405.96 -70.50,409.36 -73.60,411.10 -77.42,411.19"/>
    </edge>
    <edge id=":J32_5" function="internal">
        <lane id=":J32_5_0" index="0" speed="6.66" length="9.21" shape="-76.29,404.89 -73.83,404.96 -71.90,404.21 -70.49,402.63 -69.61,400.22"/>
    </edge>
    <edge id=":J32_6" function="internal">
        <lane id=":J32_6_0" index="0" speed="13.89" length="14.38" shape="-76.29,404.89 -62.13,407.46"/>
        <lane id=":J32_6_1" index="1" speed="13.89" length="14.38" shape="-76.86,408.04 -62.71,410.60"/>
    </edge>
    <edge id=":J34_0" function="internal">
        <lane id=":J34_0_0" index="0" speed="6.51" length="8.75" shape="-212.15,266.80 -214.53,266.65 -216.41,267.28 -217.81,268.71 -218.71,270.91"/>
    </edge>
    <edge id=":J34_1" function="internal">
        <lane id=":J34_1_0" index="0" speed="9.34" length="19.05" shape="-221.82,270.13 -219.73,263.94 -217.09,259.76 -213.92,257.58 -210.20,257.40"/>
        <lane id=":J34_1_1" index="1" speed="8.68" length="16.34" shape="-221.82,270.13 -220.06,265.30 -217.65,262.09 -214.58,260.50 -210.85,260.53"/>
    </edge>
    <edge id=":J35_0" function="internal">
        <lane id=":J35_0_0" index="0" speed="6.54" length="4.05" shape="-230.16,316.20 -230.51,317.18 -231.03,318.01 -231.72,318.72 -232.59,319.28"/>
    </edge>
    <edge id=":J35_1" function="internal">
        <lane id=":J35_1_0" index="0" speed="4.14" length="1.35" shape="-234.07,316.44 -233.78,316.26 -233.55,316.02 -233.38,315.74 -233.26,315.42"/>
    </edge>
    <edge id=":J36_0" function="internal">
        <lane id=":J36_0_0" index="0" speed="4.25" length="1.24" shape="-253.56,330.21 -253.87,330.39 -254.07,330.55 -254.20,330.77 -254.33,331.11"/>
    </edge>
    <edge id=":J36_1" function="internal">
        <lane id=":J36_1_0" index="0" speed="6.74" length="3.71" shape="-257.36,330.07 -256.97,329.05 -256.57,328.40 -255.98,327.90 -255.04,327.37"/>
    </edge>
    <edge id=":J37_0" function="internal">
        <lane id=":J37_0_0" index="0" speed="9.08" length="20.80" shape="-263.87,381.24 -268.11,379.48 -270.40,376.04 -270.72,370.94 -269.08,364.17"/>
    </edge>
    <edge id=":J37_1" function="internal">
        <lane id=":J37_1_0" index="0" speed="6.20" length="9.05" shape="-266.06,365.21 -266.53,367.70 -266.04,369.63 -264.60,370.99 -262.19,371.79"/>
        <lane id=":J37_1_1" index="1" speed="7.04" length="12.03" shape="-266.06,365.21 -266.96,369.05 -266.71,371.95 -265.31,373.91 -262.75,374.94"/>
    </edge>
    <edge id=":J41_0" function="internal">
        <lane id=":J41_0_0" index="0" speed="13.89" length="16.21" shape="413.25,503.98 408.37,503.90 405.03,503.55 401.73,502.92 396.92,501.97"/>
        <lane id=":J41_0_1" index="1" speed="13.89" length="16.21" shape="413.24,500.78 408.53,500.70 405.32,500.36 402.13,499.74 397.50,498.82"/>
    </edge>
    <edge id=":J41_2" function="internal">
        <lane id=":J41_2_0" index="0" speed="7.94" length="2.72" shape="413.24,500.78 410.62,500.07"/>
    </edge>
    <edge id=":J41_6" function="internal">
        <lane id=":J41_6_0" index="0" speed="7.94" length="12.60" shape="410.62,500.07 410.43,500.02 408.64,497.68 407.88,493.77 408.14,488.30"/>
    </edge>
    <edge id=":J41_3" function="internal">
        <lane id=":J41_3_0" index="0" speed="6.38" length="9.04" shape="398.66,492.53 401.16,492.63 403.04,491.89 404.31,490.32 404.96,487.91"/>
    </edge>
    <edge id=":J41_4" function="internal">
        <lane id=":J41_4_0" index="0" speed="13.89" length="15.00" shape="398.66,492.53 402.94,493.39 405.89,493.97 408.85,494.30 413.20,494.38"/>
        <lane id=":J41_4_1" index="1" speed="13.89" length="15.00" shape="398.08,495.68 402.54,496.56 405.60,497.16 408.69,497.50 413.22,497.58"/>
    </edge>
    <edge id=":J42_0" function="internal">
        <lane id=":J42_0_0" index="0" speed="8.95" length="19.91" shape="632.86,490.12 632.85,495.69 631.01,499.67 627.33,502.07 621.83,502.90"/>
        <lane id=":J42_0_1" index="1" speed="7.65" length="14.22" shape="629.69,490.57 629.68,494.55 628.37,497.39 625.74,499.11 621.81,499.70"/>
    </edge>
    <edge id=":J42_2" function="internal">
        <lane id=":J42_2_0" index="0" speed="3.90" length="2.84" shape="621.78,493.30 622.57,493.18 623.09,492.84 623.35,492.27 623.36,491.47"/>
        <lane id=":J42_2_1" index="1" speed="6.07" length="8.53" shape="621.80,496.50 624.16,496.15 625.73,495.12 626.52,493.41 626.52,491.02"/>
    </edge>
    <edge id=":J44_0" function="internal">
        <lane id=":J44_0_0" index="0" speed="9.04" length="23.74" shape="826.05,-5.13 832.78,-3.50 836.50,-0.25 837.21,4.65 834.90,11.18"/>
        <lane id=":J44_0_1" index="1" speed="7.72" length="16.96" shape="825.74,-1.94 830.55,-0.78 833.21,1.54 833.71,5.04 832.06,9.70"/>
    </edge>
    <edge id=":J44_2" function="internal">
        <lane id=":J44_2_0" index="0" speed="3.93" length="3.39" shape="826.38,6.76 826.71,5.82 826.61,5.12 826.08,4.66 825.12,4.43"/>
        <lane id=":J44_2_1" index="1" speed="6.12" length="10.17" shape="829.22,8.23 830.21,5.43 829.91,3.33 828.31,1.94 825.43,1.24"/>
    </edge>
    <edge id=":J47_0" function="internal">
        <lane id=":J47_0_0" index="0" speed="13.89" length="16.01" shape="112.83,347.91 108.04,347.28 104.78,346.71 101.57,345.90 96.94,344.52"/>
        <lane id=":J47_0_1" index="1" speed="13.89" length="16.01" shape="113.24,344.73 108.61,344.12 105.45,343.58 102.35,342.79 97.87,341.46"/>
    </edge>
    <edge id=":J47_2" function="internal">
        <lane id=":J47_2_0" index="0" allow="pedestrian wheelchair" speed="7.64" length="3.94" shape="113.24,344.73 109.49,343.52"/>
    </edge>
    <edge id=":J47_8" function="internal">
        <lane id=":J47_8_0" index="0" allow="pedestrian wheelchair" speed="7.64" length="13.44" shape="109.49,343.52 109.26,343.44 106.80,340.78 105.87,336.75 106.46,331.35"/>
    </edge>
    <edge id=":J47_3" function="internal">
        <lane id=":J47_3_0" index="0" allow="pedestrian wheelchair" speed="6.32" length="9.04" shape="109.59,332.04 109.40,334.54 110.08,336.44 111.63,337.72 114.05,338.39"/>
    </edge>
    <edge id=":J47_4" function="internal">
        <lane id=":J47_4_0" index="0" allow="pedestrian wheelchair" speed="7.64" length="17.33" shape="109.59,332.04 107.84,337.19 105.31,340.47 101.99,341.90 97.87,341.46"/>
    </edge>
    <edge id=":J47_5" function="internal">
        <lane id=":J47_5_0" index="0" allow="pedestrian wheelchair" speed="6.36" length="9.09" shape="99.73,335.33 102.20,335.71 104.15,335.17 105.57,333.71 106.46,331.35"/>
    </edge>
    <edge id=":J47_6" function="internal">
        <lane id=":J47_6_0" index="0" speed="13.89" length="14.94" shape="99.73,335.33 103.90,336.58 106.79,337.31 109.73,337.82 114.05,338.39"/>
        <lane id=":J47_6_1" index="1" speed="13.89" length="14.94" shape="98.80,338.40 103.12,339.68 106.12,340.44 109.17,340.97 113.64,341.56"/>
    </edge>
    <edge id=":J48_0" function="internal">
        <lane id=":J48_0_0" index="0" speed="13.89" length="15.63" shape="426.12,390.05 422.20,388.02 419.32,387.04 416.26,386.57 411.84,386.06"/>
        <lane id=":J48_0_1" index="1" speed="13.89" length="15.63" shape="427.69,387.27 423.45,385.06 420.33,383.98 417.03,383.44 412.24,382.89"/>
    </edge>
    <edge id=":J48_2" function="internal">
        <lane id=":J48_2_0" index="0" speed="9.05" length="3.24" shape="427.69,387.27 425.23,385.17"/>
    </edge>
    <edge id=":J48_11" function="internal">
        <lane id=":J48_11_0" index="0" speed="9.05" length="13.07" shape="425.23,385.17 424.90,384.88 423.47,381.66 423.42,377.61 424.74,372.73"/>
    </edge>
    <edge id=":J48_3" function="internal">
        <lane id=":J48_3_0" index="0" speed="6.98" length="9.32" shape="427.73,373.86 427.22,376.23 427.56,378.32 428.77,380.15 430.85,381.70"/>
    </edge>
    <edge id=":J48_4" function="internal">
        <lane id=":J48_4_0" index="0" speed="10.22" length="19.55" shape="427.73,373.86 425.28,378.36 421.87,381.37 417.53,382.87 412.24,382.89"/>
    </edge>
    <edge id=":J48_5" function="internal">
        <lane id=":J48_5_0" index="0" speed="8.49" length="13.22" shape="413.05,376.54 417.45,376.77 420.86,376.21 423.29,374.86 424.74,372.73"/>
    </edge>
    <edge id=":J48_6" function="internal">
        <lane id=":J48_6_0" index="0" speed="13.89" length="18.12" shape="413.05,376.54 418.57,377.20 422.37,377.85 425.96,379.13 430.85,381.70"/>
        <lane id=":J48_6_1" index="1" speed="13.89" length="18.12" shape="412.65,379.71 417.80,380.32 421.35,380.91 424.70,382.10 429.27,384.48"/>
    </edge>
    <edge id=":J48_8" function="internal">
        <lane id=":J48_8_0" index="0" speed="6.65" length="9.45" shape="416.62,392.85 416.60,390.15 415.80,388.11 414.21,386.75 411.84,386.06"/>
    </edge>
    <edge id=":J48_9" function="internal">
        <lane id=":J48_9_0" index="0" speed="13.89" length="21.84" shape="416.62,392.85 418.15,386.18 420.47,380.82 422.90,376.45 424.74,372.73"/>
    </edge>
    <edge id=":J48_10" function="internal">
        <lane id=":J48_10_0" index="0" speed="7.52" length="16.15" shape="419.79,393.24 420.99,387.74 422.97,384.45 425.73,383.36 429.27,384.48"/>
    </edge>
    <edge id=":J49_0" function="internal">
        <lane id=":J49_0_0" index="0" speed="4.06" length="1.54" shape="451.41,313.27 451.04,313.41 450.73,313.62 450.49,313.90 450.31,314.26"/>
    </edge>
    <edge id=":J49_1" function="internal">
        <lane id=":J49_1_0" index="0" speed="6.38" length="4.62" shape="447.31,313.12 447.85,312.06 448.58,311.21 449.51,310.58 450.63,310.17"/>
    </edge>
    <edge id=":J50_0" function="internal">
        <lane id=":J50_0_0" index="0" speed="13.89" length="0.46" shape="522.88,305.14 522.75,305.16 522.65,305.17 522.56,305.18 522.43,305.19"/>
    </edge>
    <edge id=":J50_1" function="internal">
        <lane id=":J50_1_0" index="0" speed="13.89" length="0.15" shape="522.23,301.99 522.27,301.99 522.31,301.99 522.34,301.98 522.38,301.98"/>
    </edge>
    <edge id=":J51_0" function="internal">
        <lane id=":J51_0_0" index="0" speed="13.89" length="14.19" shape="699.16,310.47 693.70,323.51"/>
        <lane id=":J51_0_1" index="1" speed="13.89" length="14.19" shape="696.23,309.18 690.73,322.32"/>
    </edge>
    <edge id=":J51_2" function="internal">
        <lane id=":J51_2_0" index="0" speed="9.42" length="3.00" shape="696.23,309.18 694.43,311.58"/>
    </edge>
    <edge id=":J51_8" function="internal">
        <lane id=":J51_8_0" index="0" speed="9.42" length="13.82" shape="694.43,311.58 694.20,311.90 691.02,313.48 686.69,313.93 681.21,313.24"/>
    </edge>
    <edge id=":J51_3" function="internal">
        <lane id=":J51_3_0" index="0" speed="7.40" length="10.06" shape="681.86,310.11 684.79,310.39 687.18,309.89 689.04,308.63 690.37,306.59"/>
    </edge>
    <edge id=":J51_4" function="internal">
        <lane id=":J51_4_0" index="0" speed="8.41" length="17.90" shape="681.86,310.11 687.19,311.86 690.44,314.48 691.62,317.97 690.73,322.32"/>
    </edge>
    <edge id=":J51_5" function="internal">
        <lane id=":J51_5_0" index="0" speed="6.16" length="9.05" shape="684.80,319.93 685.40,317.46 685.00,315.52 683.61,314.11 681.21,313.24"/>
    </edge>
    <edge id=":J51_6" function="internal">
        <lane id=":J51_6_0" index="0" speed="13.89" length="14.40" shape="684.80,319.93 690.37,306.59"/>
        <lane id=":J51_6_1" index="1" speed="13.89" length="14.40" shape="687.76,321.12 693.30,307.88"/>
    </edge>
    <edge id=":J53_0" function="internal">
        <lane id=":J53_0_0" index="0" speed="13.89" length="13.66" shape="476.95,307.98 473.42,308.29 470.17,308.76 466.94,309.39 463.49,310.22"/>
    </edge>
    <edge id=":J53_1" function="internal">