<?xml version="1.0" encoding="UTF-8"?>

<!-- generated on 2025-11-26 03:51:29 by Eclipse SUMO netedit Version 1.24.0
-->

<additional xmlns:xsi="http://www.w3.org/2001/XMLSchema-instance" xsi:noNamespaceSchemaLocation="http://sumo.dlr.de/xsd/additional_file.xsd">
    <!-- StoppingPlaces -->
    <parkingArea id="romerberg_parking" lane="-E37_0" startPos="335.03" endPos="343.60" roadsideCapacity="80" width="10.00"/>
</additional>
