<?xml version="1.0" encoding="UTF-8"?>

<!-- generated on 2025-11-26 04:02:39 by Eclipse SUMO sumo Version 1.24.0
-->

<sumoConfiguration xmlns:xsi="http://www.w3.org/2001/XMLSchema-instance" xsi:noNamespaceSchemaLocation="http://sumo.dlr.de/xsd/sumoConfiguration.xsd">

    <input>
        <net-file value="altstadt.net.xml"/>
        <route-files value="altstadt.rou.xml"/>
        <additional-files value="altstadt.add.xml"/>
    </input>

</sumoConfiguration>
