<?xml version="1.0" encoding="UTF-8"?>

<!-- generated on 2025-11-26 15:40:44 by Eclipse SUMO netedit Version 1.24.0
<neteditConfiguration xmlns:xsi="http://www.w3.org/2001/XMLSchema-instance" xsi:noNamespaceSchemaLocation="http://sumo.dlr.de/xsd/neteditConfiguration.xsd">

    <input>
        <sumocfg-file value="C:\Users\Lenovo\Downloads\test\test1.sumocfg"/>
        <route-files value="C:\Users\Lenovo\Downloads\test\test.rou.xml"/>
        <sumo-net-file value="C:\Users\Lenovo\Downloads\test\test.net.xml"/>
    </input>

    <output>
        <output-file value="C:\Users\Lenovo\Downloads\test\test.net.xml"/>
    </output>

    <processing>
        <offset.disable-normalization value="true"/>
    </processing>

    <junctions>
        <no-turnarounds value="true"/>
    </junctions>

    <netedit>
        <new-network value="false"/>
    </netedit>

</neteditConfiguration>
-->

<net version="1.20" junctionCornerDetail="5" limitTurnSpeed="5.50" xmlns:xsi="http://www.w3.org/2001/XMLSchema-instance" xsi:noNamespaceSchemaLocation="http://sumo.dlr.de/xsd/net_file.xsd">

    <location netOffset="0.00,0.00" convBoundary="-139.17,-104.11,179.13,90.79" origBoundary="10000000000.00,10000000000.00,-10000000000.00,-10000000000.00" projParameter="!"/>

    <edge id=":J0_0" function="internal">
        <lane id=":J0_0_0" index="0" speed="13.89" length="37.16" shape="-40.27,37.53 -47.83,33.44 -56.67,29.24 -65.74,26.17 -73.96,25.47"/>
        <lane id=":J0_0_1" index="1" speed="13.89" length="37.16" shape="-38.73,34.73 -46.59,30.58 -56.09,26.25 -65.82,23.05 -74.34,22.29"/>
    </edge>
    <edge id=":J0_2" function="internal">
        <lane id=":J0_2_0" index="0" speed="13.89" length="39.97" shape="-38.73,34.73 -50.18,27.56 -58.37,20.48 -63.30,13.50 -64.95,6.61"/>
    </edge>
    <edge id=":J0_3" function="internal">
        <lane id=":J0_3_0" index="0" speed="11.20" length="35.72" shape="-38.73,34.73 -48.75,28.55 -55.76,22.18 -58.23,15.67 -54.67,9.06"/>
    </edge>
    <edge id=":J0_4" function="internal">
        <lane id=":J0_4_0" index="0" speed="7.71" length="23.83" shape="-38.73,34.73 -43.00,30.10 -43.37,24.50 -40.33,19.78 -34.36,17.80"/>
    </edge>
    <edge id=":J0_5" function="internal">
        <lane id=":J0_5_0" index="0" speed="5.55" length="11.41" shape="-34.37,24.20 -38.28,24.50 -39.80,25.42 -38.92,26.96 -35.64,29.12"/>
    </edge>
    <edge id=":J0_6" function="internal">
        <lane id=":J0_6_0" index="0" speed="13.89" length="39.82" shape="-34.37,24.20 -43.37,24.22 -54.19,24.38 -64.99,24.76 -73.96,25.47"/>
        <lane id=":J0_6_1" index="1" speed="13.89" length="39.82" shape="-34.36,21.00 -43.43,21.03 -54.38,21.19 -65.31,21.58 -74.34,22.29"/>
    </edge>
    <edge id=":J0_8" function="internal">
        <lane id=":J0_8_0" index="0" speed="12.70" length="9.69" shape="-34.36,21.00 -44.03,20.34"/>
    </edge>
    <edge id=":J0_9" function="internal">
        <lane id=":J0_9_0" index="0" speed="9.18" length="10.18" shape="-34.36,21.00 -44.40,20.38 -44.52,20.36"/>
    </edge>
    <edge id=":J0_21" function="internal">
        <lane id=":J0_21_0" index="0" speed="12.70" length="27.49" shape="-44.03,20.34 -47.73,20.08 -57.28,17.38 -63.02,12.89 -64.95,6.61"/>
    </edge>
    <edge id=":J0_22" function="internal">
        <lane id=":J0_22_0" index="0" speed="9.18" length="20.67" shape="-44.52,20.36 -53.01,18.38 -57.37,14.70 -54.67,9.06"/>
    </edge>
    <edge id=":J0_10" function="internal">
        <lane id=":J0_10_0" index="0" speed="8.00" length="12.92" shape="-75.10,15.94 -72.05,15.04 -69.88,13.19 -68.58,10.38 -68.15,6.62"/>
    </edge>
    <edge id=":J0_11" function="internal">
        <lane id=":J0_11_0" index="0" speed="13.89" length="21.03" shape="-75.10,15.94 -69.09,14.96 -65.00,13.45 -61.39,10.88 -56.86,6.73"/>
    </edge>
    <edge id=":J0_12" function="internal">
        <lane id=":J0_12_0" index="0" speed="13.89" length="40.60" shape="-75.10,15.94 -65.95,15.22 -54.75,14.81 -43.54,14.63 -34.35,14.60"/>
        <lane id=":J0_12_1" index="1" speed="13.89" length="40.60" shape="-74.72,19.12 -65.63,18.40 -54.57,18.00 -43.48,17.83 -34.36,17.80"/>
    </edge>
    <edge id=":J0_14" function="internal">
        <lane id=":J0_14_0" index="0" speed="13.89" length="4.18" shape="-74.72,19.12 -70.56,19.50"/>
    </edge>
    <edge id=":J0_23" function="internal">
        <lane id=":J0_23_0" index="0" speed="13.89" length="35.87" shape="-70.56,19.50 -65.90,19.93 -55.51,23.26 -45.35,27.72 -37.18,31.93"/>
    </edge>
    <edge id=":J0_15" function="internal">
        <lane id=":J0_15_0" index="0" speed="6.24" length="9.05" shape="-68.24,30.60 -68.57,28.09 -69.63,26.40 -71.43,25.53 -73.96,25.47"/>
    </edge>
    <edge id=":J0_16" function="internal">
        <lane id=":J0_16_0" index="0" speed="13.89" length="24.12" shape="-68.24,30.60 -68.15,6.62"/>
        <lane id=":J0_16_1" index="1" speed="13.89" length="24.12" shape="-68.24,30.60 -67.67,24.04 -66.54,18.60 -65.43,13.17 -64.95,6.61"/>
    </edge>
    <edge id=":J0_18" function="internal">
        <lane id=":J0_18_0" index="0" speed="13.89" length="27.17" shape="-68.24,30.60 -67.47,24.10 -65.32,17.96 -61.78,12.16 -56.86,6.73"/>
    </edge>
    <edge id=":J0_19" function="internal">
        <lane id=":J0_19_0" index="0" speed="12.57" length="36.26" shape="-65.04,30.64 -63.07,25.00 -57.29,20.98 -47.72,18.58 -34.36,17.80"/>
    </edge>
    <edge id=":J0_20" function="internal">
        <lane id=":J0_20_0" index="0" speed="10.30" length="33.29" shape="-65.04,30.64 -62.54,24.87 -56.15,24.11 -47.24,26.93 -37.18,31.93"/>
    </edge>
    <edge id=":J1_0" function="internal">
        <lane id=":J1_0_0" index="0" speed="9.30" length="13.11" shape="83.28,25.62 79.34,26.64 76.32,28.15 74.23,30.16 73.05,32.66"/>
    </edge>
    <edge id=":J1_1" function="internal">
        <lane id=":J1_1_0" index="0" speed="13.89" length="34.62" shape="83.28,25.62 73.02,26.52 64.11,25.96 56.09,24.91 48.52,24.33"/>
        <lane id=":J1_1_1" index="1" speed="13.89" length="34.62" shape="82.72,22.46 72.55,23.36 63.84,22.78 56.01,21.71 48.53,21.13"/>
    </edge>
    <edge id=":J1_3" function="internal">
        <lane id=":J1_3_0" index="0" speed="13.89" length="16.46" shape="82.16,19.31 76.15,19.27 69.16,17.19 66.37,15.74"/>
    </edge>
    <edge id=":J1_4" function="internal">
        <lane id=":J1_4_0" index="0" speed="9.52" length="17.47" shape="82.16,19.31 76.81,19.11 73.07,16.34 70.93,10.99 70.82,9.30"/>
    </edge>
    <edge id=":J1_21" function="internal">
        <lane id=":J1_21_0" index="0" speed="13.89" length="16.67" shape="66.37,15.74 61.20,13.06 52.27,6.90"/>
    </edge>
    <edge id=":J1_22" function="internal">
        <lane id=":J1_22_0" index="0" speed="9.52" length="6.25" shape="70.82,9.30 70.40,3.06"/>
    </edge>
    <edge id=":J1_5" function="internal">
        <lane id=":J1_5_0" index="0" speed="13.89" length="29.34" shape="76.80,3.26 76.44,10.71 75.76,18.08 74.66,25.39 73.05,32.66"/>
        <lane id=":J1_5_1" index="1" speed="13.89" length="29.34" shape="73.60,3.16 73.26,10.50 72.61,17.62 71.55,24.69 69.95,31.85"/>
    </edge>
    <edge id=":J1_7" function="internal">
        <lane id=":J1_7_0" index="0" speed="12.39" length="4.07" shape="73.60,3.16 72.71,7.13"/>
    </edge>
    <edge id=":J1_8" function="internal">
        <lane id=":J1_8_0" index="0" speed="9.17" length="2.79" shape="73.60,3.16 72.75,5.82"/>
    </edge>
    <edge id=":J1_23" function="internal">
        <lane id=":J1_23_0" index="0" speed="12.39" length="30.66" shape="72.71,7.13 71.83,11.04 67.06,16.66 59.30,20.02 48.53,21.13"/>
    </edge>
    <edge id=":J1_24" function="internal">
        <lane id=":J1_24_0" index="0" speed="9.17" length="25.18" shape="72.75,5.82 71.46,9.84 66.39,12.27 59.59,11.08 52.27,6.90"/>
    </edge>
    <edge id=":J1_9" function="internal">
        <lane id=":J1_9_0" index="0" speed="6.71" length="14.27" shape="56.16,1.81 60.91,4.98 64.34,6.23 66.44,5.56 67.21,2.97"/>
    </edge>
    <edge id=":J1_10" function="internal">
        <lane id=":J1_10_0" index="0" speed="13.89" length="37.20" shape="56.16,1.81 65.02,9.69 70.78,17.46 73.46,25.12 73.05,32.66"/>
        <lane id=":J1_10_1" index="1" speed="13.89" length="33.45" shape="54.22,4.35 62.37,11.54 67.71,18.52 70.24,25.29 69.95,31.85"/>
    </edge>
    <edge id=":J1_12" function="internal">
        <lane id=":J1_12_0" index="0" speed="7.94" length="23.77" shape="54.22,4.35 58.01,9.50 58.00,14.99 54.67,19.36 48.53,21.13"/>
    </edge>
    <edge id=":J1_13" function="internal">
        <lane id=":J1_13_0" index="0" speed="5.46" length="10.29" shape="48.54,14.73 51.93,14.41 53.36,13.42 52.83,11.76 50.33,9.44"/>
    </edge>
    <edge id=":J1_14" function="internal">
        <lane id=":J1_14_0" index="0" speed="10.51" length="24.69" shape="48.54,14.73 56.57,14.01 62.36,11.81 65.91,8.13 67.21,2.97"/>
        <lane id=":J1_14_1" index="1" speed="11.49" length="29.71" shape="48.53,17.93 57.93,17.02 64.71,14.23 68.87,9.58 70.40,3.06"/>
    </edge>
    <edge id=":J1_16" function="internal">
        <lane id=":J1_16_0" index="0" speed="10.56" length="16.57" shape="48.53,17.93 58.29,18.49 64.84,20.32"/>
    </edge>
    <edge id=":J1_25" function="internal">
        <lane id=":J1_25_0" index="0" speed="10.56" length="13.89" shape="64.84,20.32 65.70,20.56 69.88,24.80 69.95,31.85"/>
    </edge>
    <edge id=":J1_17" function="internal">
        <lane id=":J1_17_0" index="0" speed="8.27" length="18.17" shape="63.76,30.23 63.39,27.66 60.72,25.82 55.77,24.71 48.52,24.33"/>
    </edge>
    <edge id=":J1_18" function="internal">
        <lane id=":J1_18_0" index="0" speed="12.69" length="25.97" shape="63.76,30.23 63.78,25.64 61.55,20.64 57.07,15.24 50.33,9.44"/>
    </edge>
    <edge id=":J1_19" function="internal">
        <lane id=":J1_19_0" index="0" speed="13.89" length="27.90" shape="63.76,30.23 65.33,23.29 66.32,16.72 66.90,10.08 67.21,2.97"/>
        <lane id=":J1_19_1" index="1" speed="13.89" length="27.90" shape="66.86,31.04 68.44,23.99 69.47,17.17 70.08,10.29 70.40,3.06"/>
    </edge>
    <edge id=":J10_0" function="internal">
        <lane id=":J10_0_0" index="0" speed="3.90" length="2.97" shape="-132.99,80.56 -133.03,81.40 -132.78,81.99 -132.24,82.35 -131.41,82.46"/>
        <lane id=":J10_0_1" index="1" speed="6.08" length="8.90" shape="-136.14,79.96 -136.25,82.47 -135.50,84.26 -133.88,85.32 -131.39,85.66"/>
    </edge>
    <edge id=":J13_0" function="internal">
        <lane id=":J13_0_0" index="0" speed="6.54" length="9.01" shape="-74.32,82.05 -71.92,81.68 -70.19,80.62 -69.13,78.86 -68.76,76.40"/>
    </edge>
    <edge id=":J13_1" function="internal">
        <lane id=":J13_1_0" index="0" speed="13.89" length="14.30" shape="-74.32,82.05 -60.05,81.89"/>
        <lane id=":J13_1_1" index="1" speed="13.89" length="14.30" shape="-74.30,85.25 -59.98,85.09"/>
    </edge>
    <edge id=":J14_0" function="internal">
        <lane id=":J14_0_0" index="0" speed="13.89" length="40.49" shape="66.17,89.74 57.21,87.91 46.56,84.03 36.15,79.35 27.87,75.09"/>
        <lane id=":J14_0_1" index="1" speed="13.89" length="40.49" shape="66.34,86.54 57.59,84.78 47.42,81.03 37.48,76.48 29.42,72.29"/>
    </edge>
    <edge id=":J14_2" function="internal">
        <lane id=":J14_2_0" index="0" speed="9.04" length="21.28" shape="66.34,86.54 60.52,85.37 56.88,82.58 55.41,78.15 56.12,72.10"/>
    </edge>
    <edge id=":J14_3" function="internal">
        <lane id=":J14_3_0" index="0" speed="6.19" length="9.34" shape="62.31,73.72 61.99,76.42 62.60,78.39 64.16,79.64 66.67,80.15"/>
        <lane id=":J14_3_1" index="1" speed="7.75" length="15.31" shape="59.22,72.91 58.70,77.29 59.74,80.48 62.34,82.50 66.50,83.35"/>
    </edge>
    <edge id=":J14_5" function="internal">
        <lane id=":J14_5_0" index="0" speed="11.25" length="34.60" shape="59.22,72.91 55.33,78.80 48.63,79.92 39.77,77.38 29.42,72.29"/>
    </edge>
    <edge id=":J14_6" function="internal">
        <lane id=":J14_6_0" index="0" speed="9.20" length="22.69" shape="32.51,66.69 40.91,70.90 47.13,73.07 51.17,73.20 53.03,71.29"/>
    </edge>
    <edge id=":J14_7" function="internal">
        <lane id=":J14_7_0" index="0" speed="13.89" length="37.65" shape="32.51,66.69 40.14,70.75 49.13,75.04 58.35,78.51 66.67,80.15"/>
        <lane id=":J14_7_1" index="1" speed="13.89" length="37.65" shape="30.96,69.49 38.81,73.62 48.27,78.03 57.97,81.64 66.50,83.35"/>
    </edge>
    <edge id=":J14_9" function="internal">
        <lane id=":J14_9_0" index="0" speed="5.53" length="11.19" shape="26.64,80.11 30.45,79.72 31.93,78.75 31.07,77.21 27.87,75.09"/>
    </edge>
    <edge id=":J14_10" function="internal">
        <lane id=":J14_10_0" index="0" speed="13.17" length="31.74" shape="26.64,80.11 38.81,79.39 47.78,77.82 53.55,75.39 56.12,72.10"/>
    </edge>
    <edge id=":J14_11" function="internal">
        <lane id=":J14_11_0" index="0" speed="13.89" length="39.92" shape="26.64,80.11 66.67,80.15"/>
        <lane id=":J14_11_1" index="1" speed="13.89" length="39.92" shape="26.70,83.31 66.50,83.35"/>
    </edge>
    <edge id=":J15_0" function="internal">
        <lane id=":J15_0_0" index="0" speed="13.16" length="36.34" shape="136.64,-112.10 147.12,-110.87 154.97,-107.17 160.17,-100.99 162.74,-92.33"/>
        <lane id=":J15_0_1" index="1" speed="12.30" length="31.64" shape="136.65,-108.90 145.87,-107.84 152.76,-104.67 157.33,-99.36 159.57,-91.93"/>
    </edge>
    <edge id=":J15_2" function="internal">
        <lane id=":J15_2_0" index="0" speed="8.42" length="26.42" shape="136.65,-105.70 144.30,-104.18 149.76,-100.30 151.56,-95.09 148.25,-89.60"/>
        <lane id=":J15_2_1" index="1" speed="7.76" length="22.17" shape="136.65,-105.70 143.04,-104.40 147.56,-101.10 149.01,-96.69 146.20,-92.06"/>
        <lane id=":J15_2_2" index="2" speed="7.03" length="17.93" shape="136.65,-105.70 141.78,-104.63 145.36,-101.91 146.46,-98.29 144.16,-94.52"/>
    </edge>
    <edge id=":J15_5" function="internal">
        <lane id=":J15_5_0" index="0" speed="10.21" length="34.06" shape="138.02,-101.91 146.40,-106.44 153.94,-106.13 159.69,-101.32 162.74,-92.33"/>
        <lane id=":J15_5_1" index="1" speed="9.12" length="26.85" shape="140.07,-99.45 146.68,-103.02 152.62,-102.79 157.16,-99.01 159.57,-91.93"/>
        <lane id=":J15_5_2" index="2" speed="8.18" length="21.36" shape="142.11,-96.99 147.62,-100.48 151.83,-100.73 154.76,-97.75 156.39,-91.53"/>
    </edge>
    <edge id=":J16_0" function="internal">
        <lane id=":J16_0_0" index="0" speed="6.43" length="9.03" shape="163.88,17.13 163.18,14.74 161.89,13.17 160.00,12.43 157.52,12.51"/>
        <lane id=":J16_0_1" index="1" speed="7.94" length="14.32" shape="167.05,16.68 165.95,12.89 163.90,10.41 160.90,9.23 156.96,9.36"/>
    </edge>
    <edge id=":J16_2" function="internal">
        <lane id=":J16_2_0" index="0" speed="13.89" length="18.64" shape="174.13,-2.20 174.31,3.12 173.71,6.80 173.13,10.47 173.38,15.79"/>
        <lane id=":J16_2_1" index="1" speed="13.89" length="18.64" shape="174.13,-2.20 173.83,3.31 172.12,7.02 170.44,10.73 170.22,16.23"/>
    </edge>
    <edge id=":J16_4" function="internal">
        <lane id=":J16_4_0" index="0" speed="9.53" length="14.28" shape="170.96,-1.80 170.49,2.08 168.00,5.24 163.49,7.67 162.30,7.97"/>
        <lane id=":J16_4_1" index="1" speed="8.34" length="14.92" shape="167.78,-1.40 167.33,1.13 165.29,3.24 161.64,4.93 156.41,6.21"/>
    </edge>
    <edge id=":J16_6" function="internal">
        <lane id=":J16_6_0" index="0" speed="9.53" length="5.52" shape="162.30,7.97 156.96,9.36"/>
    </edge>
    <edge id=":J2_0" function="internal">
        <lane id=":J2_0_0" index="0" speed="9.37" length="8.88" shape="81.46,-34.10 79.86,-32.48 78.70,-30.66 77.98,-28.61 77.69,-26.36"/>
    </edge>
    <edge id=":J2_1" function="internal">
        <lane id=":J2_1_0" index="0" speed="13.89" length="17.47" shape="79.42,-36.56 75.04,-33.57 71.44,-32.55 67.46,-32.60 61.92,-32.80"/>
        <lane id=":J2_1_1" index="1" speed="13.89" length="17.47" shape="77.37,-39.02 73.51,-36.43 70.32,-35.64 66.79,-35.78 61.90,-36.00"/>
    </edge>
    <edge id=":J2_3" function="internal">
        <lane id=":J2_3_0" index="0" speed="11.85" length="12.50" shape="61.87,-42.40 64.93,-42.58 66.99,-43.19 68.84,-44.41 71.24,-46.40"/>
        <lane id=":J2_3_1" index="1" speed="13.01" length="12.50" shape="61.89,-39.20 65.60,-39.40 68.12,-40.10 70.37,-41.54 73.28,-43.94"/>
        <lane id=":J2_3_2" index="2" speed="13.68" length="12.50" shape="61.89,-39.20 66.13,-38.96 69.20,-38.72 71.97,-39.29 75.33,-41.48"/>
    </edge>
    <edge id=":J2_6" function="internal">
        <lane id=":J2_6_0" index="0" speed="9.42" length="5.94" shape="61.89,-39.20 67.55,-38.43 67.74,-38.31"/>
    </edge>
    <edge id=":J2_10" function="internal">
        <lane id=":J2_10_0" index="0" speed="9.42" length="14.66" shape="67.74,-38.31 71.53,-36.05 73.85,-32.06 74.49,-26.46"/>
    </edge>
    <edge id=":J2_7" function="internal">
        <lane id=":J2_7_0" index="0" speed="6.74" length="10.02" shape="68.09,-26.65 67.78,-29.35 66.64,-31.28 64.69,-32.43 61.92,-32.80"/>
    </edge>
    <edge id=":J2_8" function="internal">
        <lane id=":J2_8_0" index="0" speed="13.03" length="17.61" shape="71.29,-26.55 71.60,-33.69 72.03,-38.97 72.59,-42.39 73.28,-43.94"/>
        <lane id=":J2_8_1" index="1" speed="12.36" length="15.80" shape="71.29,-26.55 71.68,-31.94 72.48,-36.22 73.70,-39.40 75.33,-41.48"/>
    </edge>
    <edge id=":J20_0" function="internal">
        <lane id=":J20_0_0" index="0" speed="8.96" length="20.72" shape="182.80,82.43 182.78,88.27 180.83,92.35 176.95,94.65 171.13,95.18"/>
        <lane id=":J20_0_1" index="1" speed="7.66" length="14.80" shape="179.63,82.88 179.62,87.05 178.23,89.96 175.45,91.61 171.30,91.99"/>
    </edge>
    <edge id=":J20_2" function="internal">
        <lane id=":J20_2_0" index="0" speed="3.90" length="2.96" shape="171.63,85.60 172.46,85.52 173.01,85.19 173.29,84.61 173.29,83.78"/>
        <lane id=":J20_2_1" index="1" speed="6.08" length="8.88" shape="171.46,88.79 173.96,88.56 175.62,87.58 176.46,85.83 176.46,83.33"/>
    </edge>
    <edge id=":J3_0" function="internal">
        <lane id=":J3_0_0" index="0" speed="6.55" length="9.11" shape="-68.26,-26.54 -68.62,-29.01 -69.68,-30.78 -71.45,-31.85 -73.91,-32.22"/>
    </edge>
    <edge id=":J3_1" function="internal">
        <lane id=":J3_1_0" index="0" speed="13.89" length="20.91" shape="-68.26,-26.54 -68.22,-47.47"/>
        <lane id=":J3_1_1" index="1" speed="13.89" length="20.91" shape="-65.06,-26.56 -65.02,-47.45"/>
    </edge>
    <edge id=":J3_3" function="internal">
        <lane id=":J3_3_0" index="0" speed="9.04" length="18.40" shape="-65.06,-26.56 -63.99,-30.83 -61.18,-34.70 -57.30,-37.52 -53.03,-38.61"/>
    </edge>
    <edge id=":J3_4" function="internal">
        <lane id=":J3_4_0" index="0" speed="13.89" length="20.90" shape="-52.99,-32.21 -73.91,-32.22"/>
        <lane id=":J3_4_1" index="1" speed="13.89" length="20.90" shape="-53.01,-35.41 -73.89,-35.42"/>
    </edge>
    <edge id=":J3_6" function="internal">
        <lane id=":J3_6_0" index="0" speed="9.24" length="5.16" shape="-53.01,-35.41 -58.12,-36.12"/>
    </edge>
    <edge id=":J3_14" function="internal">
        <lane id=":J3_14_0" index="0" speed="9.24" length="14.28" shape="-58.12,-36.12 -58.30,-36.14 -62.06,-38.39 -64.30,-42.16 -65.02,-47.45"/>
    </edge>
    <edge id=":J3_7" function="internal">
        <lane id=":J3_7_0" index="0" speed="6.48" length="9.03" shape="-58.62,-47.40 -58.29,-44.95 -57.25,-43.20 -55.50,-42.15 -53.04,-41.81"/>
    </edge>
    <edge id=":J3_8" function="internal">
        <lane id=":J3_8_0" index="0" speed="10.11" length="23.27" shape="-58.62,-47.40 -60.02,-42.00 -63.59,-37.10 -68.50,-33.56 -73.91,-32.22"/>
        <lane id=":J3_8_1" index="1" speed="9.04" length="18.39" shape="-61.82,-47.42 -62.93,-43.15 -65.74,-39.28 -69.62,-36.48 -73.89,-35.42"/>
    </edge>
    <edge id=":J3_10" function="internal">
        <lane id=":J3_10_0" index="0" speed="6.53" length="9.10" shape="-73.86,-41.82 -71.41,-42.16 -69.65,-43.21 -68.59,-44.98 -68.22,-47.47"/>
        <lane id=":J3_10_1" index="1" speed="8.02" length="14.25" shape="-73.88,-38.62 -70.03,-39.15 -67.27,-40.80 -65.60,-43.57 -65.02,-47.45"/>
    </edge>
    <edge id=":J3_12" function="internal">
        <lane id=":J3_12_0" index="0" speed="13.89" length="21.00" shape="-73.88,-38.62 -67.81,-39.09 -63.46,-40.18 -59.11,-41.29 -53.04,-41.81"/>
        <lane id=":J3_12_1" index="1" speed="13.89" length="21.00" shape="-73.88,-38.62 -53.03,-38.61"/>
    </edge>
    <edge id=":J4_0" function="internal">
        <lane id=":J4_0_0" index="0" speed="8.96" length="18.37" shape="-133.52,-30.67 -132.90,-35.68 -130.81,-39.25 -127.27,-41.38 -122.26,-42.07"/>
        <lane id=":J4_0_1" index="1" speed="7.65" length="13.12" shape="-130.32,-30.73 -129.88,-34.31 -128.39,-36.86 -125.85,-38.38 -122.28,-38.87"/>
    </edge>
    <edge id=":J4_2" function="internal">
        <lane id=":J4_2_0" index="0" speed="3.90" length="2.62" shape="-122.32,-32.47 -123.03,-32.37 -123.54,-32.07 -123.83,-31.56 -123.92,-30.84"/>
        <lane id=":J4_2_1" index="1" speed="6.07" length="7.87" shape="-122.30,-35.67 -124.44,-35.38 -125.96,-34.46 -126.85,-32.93 -127.12,-30.79"/>
    </edge>
    <edge id=":J5_0" function="internal">
        <lane id=":J5_0_0" index="0" speed="8.10" length="11.15" shape="-116.10,30.55 -119.45,31.26 -121.99,32.50 -123.70,34.26 -124.59,36.54"/>
        <lane id=":J5_0_1" index="1" speed="9.38" length="15.21" shape="-116.48,27.37 -120.88,28.35 -124.22,30.11 -126.51,32.64 -127.74,35.94"/>
    </edge>
    <edge id=":J5_2" function="internal">
        <lane id=":J5_2_0" index="0" speed="9.69" length="22.97" shape="-116.48,27.37 -123.48,27.39 -128.51,25.52 -131.58,21.76 -132.68,16.11"/>
        <lane id=":J5_2_1" index="1" speed="9.11" length="20.15" shape="-116.48,27.37 -122.08,27.24 -126.12,25.31 -128.58,21.58 -129.48,16.05"/>
    </edge>
    <edge id=":J5_4" function="internal">
        <lane id=":J5_4_0" index="0" speed="6.30" length="9.04" shape="-123.08,15.94 -122.68,18.42 -121.57,20.09 -119.76,20.96 -117.25,21.02"/>
        <lane id=":J5_4_1" index="1" speed="7.13" length="11.92" shape="-123.08,15.94 -122.63,19.83 -121.45,22.50 -119.52,23.95 -116.86,24.20"/>
    </edge>
    <edge id=":J5_6" function="internal">
        <lane id=":J5_6_0" index="0" speed="13.89" length="20.39" shape="-123.08,15.94 -122.98,21.99 -123.07,26.30 -123.54,30.58 -124.59,36.54"/>
        <lane id=":J5_6_1" index="1" speed="13.89" length="20.39" shape="-126.28,16.00 -126.17,21.95 -126.24,26.03 -126.69,30.08 -127.74,35.94"/>
    </edge>
    <edge id=":J7_0" function="internal">
        <lane id=":J7_0_0" index="0" speed="3.90" length="2.55" shape="-56.71,-98.59 -57.40,-98.49 -57.90,-98.19 -58.19,-97.70 -58.30,-97.01"/>
        <lane id=":J7_0_1" index="1" speed="6.08" length="7.66" shape="-56.74,-101.79 -58.81,-101.48 -60.29,-100.58 -61.19,-99.10 -61.50,-97.03"/>
    </edge>
    <edge id=":J7_2" function="internal">
        <lane id=":J7_2_0" index="0" speed="8.96" length="17.87" shape="-67.90,-97.07 -67.18,-101.90 -65.08,-105.37 -61.62,-107.46 -56.79,-108.19"/>
        <lane id=":J7_2_1" index="1" speed="7.66" length="12.76" shape="-64.70,-97.05 -64.18,-100.50 -62.69,-102.97 -60.22,-104.47 -56.76,-104.99"/>
    </edge>
    <edge id=":J8_0" function="internal">
        <lane id=":J8_0_0" index="0" speed="13.89" length="22.58" shape="-1.78,-108.65 4.34,-109.20 8.92,-110.33 13.74,-111.45 20.61,-111.96"/>
        <lane id=":J8_0_1" index="1" speed="13.89" length="22.58" shape="-1.76,-105.45 4.37,-106.00 8.94,-107.13 13.75,-108.25 20.61,-108.76"/>
        <lane id=":J8_0_2" index="2" speed="13.89" length="22.58" shape="-1.76,-105.45 20.61,-105.56"/>
    </edge>
    <edge id=":J8_3" function="internal">
        <lane id=":J8_3_0" index="0" speed="9.58" length="24.00" shape="-1.76,-105.45 5.53,-104.62 10.35,-102.01 12.68,-97.60 12.53,-91.41"/>
        <lane id=":J8_3_1" index="1" speed="8.99" length="20.97" shape="-1.76,-105.45 4.11,-104.65 7.93,-102.15 9.69,-97.94 9.39,-92.02"/>
    </edge>
    <edge id=":J8_5" function="internal">
        <lane id=":J8_5_0" index="0" speed="6.12" length="9.06" shape="3.11,-93.25 3.24,-95.81 2.48,-97.62 0.83,-98.70 -1.70,-99.05"/>
        <lane id=":J8_5_1" index="1" speed="6.97" length="12.13" shape="3.11,-93.25 3.47,-97.21 2.79,-100.03 1.05,-101.71 -1.73,-102.25"/>
    </edge>
    <edge id=":J8_7" function="internal">
        <lane id=":J8_7_0" index="0" speed="11.45" length="25.66" shape="3.11,-93.25 5.34,-100.03 9.00,-104.87 14.09,-107.78 20.61,-108.76"/>
        <lane id=":J8_7_1" index="1" speed="10.44" length="21.20" shape="6.25,-92.64 8.10,-98.28 11.10,-102.32 15.28,-104.75 20.61,-105.56"/>
    </edge>
    <edge id=":J9_0" function="internal">
        <lane id=":J9_0_0" index="0" speed="13.89" length="39.12" shape="12.25,-19.63 4.76,-24.19 -4.71,-28.29 -14.57,-31.25 -23.21,-32.37"/>
        <lane id=":J9_0_1" index="1" speed="13.89" length="39.12" shape="14.19,-22.18 6.40,-26.84 -3.75,-31.17 -14.28,-34.35 -23.23,-35.57"/>
    </edge>
    <edge id=":J9_2" function="internal">
        <lane id=":J9_2_0" index="0" speed="13.89" length="33.13" shape="14.19,-22.18 6.08,-29.27 0.64,-36.14 -2.14,-42.77 -2.24,-49.17"/>
    </edge>
    <edge id=":J9_3" function="internal">
        <lane id=":J9_3_0" index="0" speed="7.95" length="3.28" shape="14.19,-22.18 12.24,-24.82"/>
    </edge>
    <edge id=":J9_22" function="internal">
        <lane id=":J9_22_0" index="0" speed="7.95" length="20.48" shape="12.24,-24.82 10.39,-27.32 10.38,-32.80 13.69,-37.18 19.83,-38.98"/>
    </edge>
    <edge id=":J9_4" function="internal">
        <lane id=":J9_4_0" index="0" speed="5.46" length="10.26" shape="19.86,-32.58 16.49,-32.24 15.07,-31.23 15.60,-29.58 18.08,-27.27"/>
    </edge>
    <edge id=":J9_5" function="internal">
        <lane id=":J9_5_0" index="0" speed="13.89" length="43.07" shape="19.86,-32.58 -23.21,-32.37"/>
        <lane id=":J9_5_1" index="1" speed="13.89" length="43.07" shape="19.84,-35.78 -23.23,-35.57"/>
    </edge>
    <edge id=":J9_7" function="internal">
        <lane id=":J9_7_0" index="0" speed="10.73" length="10.42" shape="19.84,-35.78 10.03,-36.26 9.46,-36.41"/>
    </edge>
    <edge id=":J9_23" function="internal">
        <lane id=":J9_23_0" index="0" speed="10.73" length="19.92" shape="9.46,-36.41 2.60,-38.23 -1.74,-42.32 -2.24,-49.17"/>
    </edge>
    <edge id=":J9_8" function="internal">
        <lane id=":J9_8_0" index="0" speed="8.47" length="18.48" shape="4.04,-47.94 4.60,-45.39 7.41,-43.58 12.48,-42.51 19.81,-42.18"/>
    </edge>
    <edge id=":J9_9" function="internal">
        <lane id=":J9_9_0" index="0" speed="13.15" length="26.06" shape="4.04,-47.94 4.28,-43.40 6.70,-38.44 11.30,-33.06 18.08,-27.27"/>
        <lane id=":J9_9_1" index="1" speed="13.89" length="29.59" shape="0.90,-48.55 1.07,-43.08 3.67,-37.29 8.69,-31.17 16.13,-24.72"/>
    </edge>
    <edge id=":J9_11" function="internal">
        <lane id=":J9_11_0" index="0" speed="12.31" length="1.72" shape="0.90,-48.55 0.21,-46.98"/>
    </edge>
    <edge id=":J9_24" function="internal">
        <lane id=":J9_24_0" index="0" speed="12.31" length="28.02" shape="0.21,-46.98 -1.55,-42.91 -6.39,-38.87 -13.62,-36.42 -23.23,-35.57"/>
    </edge>
    <edge id=":J9_12" function="internal">
        <lane id=":J9_12_0" index="0" speed="10.40" length="20.95" shape="-23.26,-41.97 -16.01,-42.49 -10.61,-43.96 -7.07,-46.39 -5.38,-49.78"/>
    </edge>
    <edge id=":J9_13" function="internal">
        <lane id=":J9_13_0" index="0" speed="13.89" length="43.07" shape="-23.26,-41.97 19.81,-42.18"/>
        <lane id=":J9_13_1" index="1" speed="13.89" length="43.07" shape="-23.25,-38.77 19.83,-38.98"/>
    </edge>
    <edge id=":J9_15" function="internal">
        <lane id=":J9_15_0" index="0" speed="13.89" length="4.85" shape="-23.25,-38.77 -18.44,-38.08"/>
    </edge>
    <edge id=":J9_25" function="internal">
        <lane id=":J9_25_0" index="0" speed="13.89" length="37.34" shape="-18.44,-38.08 -13.99,-37.45 -2.79,-34.04 8.03,-29.48 16.13,-24.72"/>
    </edge>
    <edge id=":J9_16" function="internal">
        <lane id=":J9_16_0" index="0" speed="5.46" length="9.86" shape="-21.03,-26.88 -18.96,-29.30 -18.63,-31.02 -20.05,-32.04 -23.21,-32.37"/>
    </edge>
    <edge id=":J9_17" function="internal">
        <lane id=":J9_17_0" index="0" speed="13.89" length="28.94" shape="-21.03,-26.88 -15.78,-31.97 -11.19,-37.22 -7.61,-43.03 -5.38,-49.78"/>
        <lane id=":J9_17_1" index="1" speed="13.89" length="28.94" shape="-21.03,-26.88 -15.29,-31.87 -9.62,-36.91 -4.96,-42.51 -2.24,-49.17"/>
    </edge>
    <edge id=":J9_19" function="internal">
        <lane id=":J9_19_0" index="0" speed="13.89" length="44.09" shape="-21.03,-26.88 -12.98,-32.15 -1.62,-37.08 10.24,-40.73 19.81,-42.18"/>
        <lane id=":J9_19_1" index="1" speed="13.89" length="41.77" shape="-18.84,-24.55 -11.13,-29.68 -0.52,-34.31 10.59,-37.67 19.83,-38.98"/>
    </edge>
    <edge id=":J9_21" function="internal">
        <lane id=":J9_21_0" index="0" speed="13.78" length="38.57" shape="-18.84,-24.55 -10.73,-30.11 -2.20,-32.00 6.76,-30.20 16.13,-24.72"/>
    </edge>

    <edge id="-E0" from="J1" to="J0" priority="-1">
        <lane id="-E0_0" index="0" speed="13.89" length="82.89" shape="48.52,24.33 -34.37,24.20"/>
        <lane id="-E0_1" index="1" speed="13.89" length="82.89" shape="48.53,21.13 -34.36,21.00"/>
    </edge>