<?xml version="1.0" encoding="UTF-8"?>

<!-- generated on 2025-11-26 15:46:12 by Eclipse SUMO netedit Version 1.24.0
-->

<routes xmlns:xsi="http://www.w3.org/2001/XMLSchema-instance" xsi:noNamespaceSchemaLocation="http://sumo.dlr.de/xsd/routes_file.xsd">
    <!-- Vehicles, persons and containers (sorted by depart) -->
    <flow id="f_0" begin="0.00" from="E15" to="-E5" via="E23 -E30 E24 -E22" end="3600.00" vehsPerHour="1800"/>
    <flow id="f_1" begin="0.00" color="magenta" from="E17" to="E7" via="-E17 E28 -E28 E29 -E29 E27 -E30 E30 E23 E8 -E8 -E9 E9 -E2.60 E2 E13 -E13 -E1 E1 E24 -E0 E0 -E22 E22 E16 E14 E10 E15 -E6 E6 -E5 E5 E4 -E4 -E2 E20 E12 E3 -E7" end="3600.00" vehsPerHour="1800"/>
    <flow id="f_2" begin="0.00" color="red" from="-E9" to="E9" via="-E2 E12 E20 E0 -E0 -E22 E22 E28 -E28 E29 -E29 E27 E24 -E30 E30 E23 E8 -E8 -E2.60 E2 -E1 E1 E13 -E13 E17 -E17 -E6 E6 -E5 E5 E4 -E4 E3 -E7 E7 E15 E10 E14 E16" end="3600.00" vehsPerHour="1800"/>
</routes>
